Pcp_File_Version=4
*** BLOCK A: BASIC INFORMATION ***************************************************
Created with Pydrus version 0.2.0
Root water uptake in a soil profile
LUnit TUnit MUnit
cm
days
mmol
lWat  lChem  lTemp  lSink  lRoot  lShort  lWDep  lScreen  AtmInf  lEquil  lInverse  
t  f  f  t  f  f  f  f  t  t  f
lSnow  lHP1  lMeteo  lVapor  lActRSU  lFlux  lIrrig  
f  f  f  f  f  t  f
NMat NLay CosAlfa 
1 1 1
*** BLOCK B: WATER FLOW INFORMATION **********************************************
MaxIt  TolTh  TolH   (maximum number of iterations and tolerances)
10   0.001   1
TopInf  WLayer  KodTop  lInitW  
t f -1 f 
BotInf  qGWLF  FreeD  SeepF  KodBot  qDrain  hSeep  
f f f f 1 f 0 
ha  hb  
0 0 
iModel  iHyst  
3 0 
  thr  ths  Alfa    n  Ks   l
0.068 0.38 0.008 1.09 4.8 0.5
*** BLOCK C: TIME INFORMATION ****************************************************
dt dtMin dtMax dMul dMul2 ItMin ItMax MPL 
0.001 1e-05 5 1.3 0.7 3 7 11 
tInit tMax 
0 30 
lPrint nPrintSteps tPrintInterval lEnter 
f 1 1 f 
TPrint(1),TPrint(2),...,TPrint(MPL)
1 2 3 4 5 6
7 8 10 15 30
*** BLOCK G: ROOT WATER UPTAKE INFORMATION ***************************************
iMoSink cRootMax OmegaC 
0    1    1
P0 P2H P2L P3 r2H r2L 
-10    -200    -800    -8000    0.5    0.1
POptm(1),POptm(2),...,POptm(NMat)
-25
*** BLOCK END OF INPUT FILE SELECTOR.IN ******************************************
