Pcp_File_Version=4
*** BLOCK I: ATMOSPHERIC INFORMATION  **********************************
MaxAL (MaxAL = number of atmospheric data-records)
43824
lDailyVar lSinusVar lLai lBCCycles lInterc 
f f f f f
hCritS (max. allowed pressure head at the soil surface)
0.0
 tAtm   Prec        rSoil        rRoot  hCritA  rB  hB  ht  tTop  tBot  Ampl  cTop  cBot
    1 0.0000 0.000000e+00 0.000000e+00   50000   0   0   0     0     0     0   0.0   0.0
    2 0.0000 0.000000e+00 0.000000e+00   50000   0   0   0     0     0     0   0.0   0.0
    3 0.0000 0.000000e+00 0.000000e+00   50000   0   0   0     0     0     0   0.0   0.0
    4 0.0000 0.000000e+00 0.000000e+00   50000   0   0   0     0     0     0   0.0   0.0
    5 0.0000 0.000000e+00 0.000000e+00   50000   0   0   0     0     0     0   0.0   0.0
    6 0.0000 0.000000e+00 0.000000e+00   50000   0   0   0     0     0     0   0.0   0.0
    7 0.0000 0.000000e+00 0.000000e+00   50000   0   0   0     0     0     0   0.0   0.0
    8 0.0000 0.000000e+00 0.000000e+00   50000   0   0   0     0     0     0   0.0   0.0
    9 0.0000 0.000000e+00 0.000000e+00   50000   0   0   0     0     0     0   0.0   0.0
   10 0.0000 4.023588e-04 7.360616e-05   50000   0   0   0     0     0     0   0.0   0.0
   11 0.0000 7.940608e-04 1.452628e-04   50000   0   0   0     0     0     0   0.0   0.0
   12 0.0000 2.169285e-03 3.968417e-04   50000   0   0   0     0     0     0   0.0   0.0
   13 0.0508 3.007531e-03 5.501875e-04   50000   0   0   0     0     0     0   0.0   0.0
   14 0.0254 2.260680e-03 4.135611e-04   50000   0   0   0     0     0     0   0.0   0.0
   15 0.0254 2.437727e-03 4.459495e-04   50000   0   0   0     0     0     0   0.0   0.0
   16 0.0000 1.745428e-03 3.193027e-04   50000   0   0   0     0     0     0   0.0   0.0
   17 0.0000 9.860585e-04 1.803862e-04   50000   0   0   0     0     0     0   0.0   0.0
   18 0.0000 0.000000e+00 0.000000e+00   50000   0   0   0     0     0     0   0.0   0.0
   19 0.0000 0.000000e+00 0.000000e+00   50000   0   0   0     0     0     0   0.0   0.0
   20 0.0000 0.000000e+00 0.000000e+00   50000   0   0   0     0     0     0   0.0   0.0
   21 0.0254 0.000000e+00 0.000000e+00   50000   0   0   0     0     0     0   0.0   0.0
   22 0.0000 0.000000e+00 0.000000e+00   50000   0   0   0     0     0     0   0.0   0.0
   23 0.0254 0.000000e+00 0.000000e+00   50000   0   0   0     0     0     0   0.0   0.0
   24 0.0000 0.000000e+00 0.000000e+00   50000   0   0   0     0     0     0   0.0   0.0
   25 0.0000 0.000000e+00 0.000000e+00   50000   0   0   0     0     0     0   0.0   0.0
   26 0.0000 0.000000e+00 0.000000e+00   50000   0   0   0     0     0     0   0.0   0.0
   27 0.0000 0.000000e+00 0.000000e+00   50000   0   0   0     0     0     0   0.0   0.0
   28 0.0000 0.000000e+00 0.000000e+00   50000   0   0   0     0     0     0   0.0   0.0
   29 0.0254 0.000000e+00 0.000000e+00   50000   0   0   0     0     0     0   0.0   0.0
   30 0.0000 0.000000e+00 0.000000e+00   50000   0   0   0     0     0     0   0.0   0.0
   31 0.0254 0.000000e+00 0.000000e+00   50000   0   0   0     0     0     0   0.0   0.0
   32 0.0254 0.000000e+00 0.000000e+00   50000   0   0   0     0     0     0   0.0   0.0
   33 0.0000 0.000000e+00 0.000000e+00   50000   0   0   0     0     0     0   0.0   0.0
   34 0.0000 2.149223e-04 3.931716e-05   50000   0   0   0     0     0     0   0.0   0.0
   35 0.0254 5.715928e-04 1.045653e-04   50000   0   0   0     0     0     0   0.0   0.0
   36 0.0000 8.722810e-04 1.595721e-04   50000   0   0   0     0     0     0   0.0   0.0
   37 0.0000 1.632484e-03 2.986410e-04   50000   0   0   0     0     0     0   0.0   0.0
   38 0.0254 2.159453e-03 3.950430e-04   50000   0   0   0     0     0     0   0.0   0.0
   39 0.0000 2.458556e-03 4.497599e-04   50000   0   0   0     0     0     0   0.0   0.0
   40 0.0254 2.580452e-03 4.720592e-04   50000   0   0   0     0     0     0   0.0   0.0
   41 0.0000 9.694940e-04 1.773560e-04   50000   0   0   0     0     0     0   0.0   0.0
   42 0.0254 0.000000e+00 0.000000e+00   50000   0   0   0     0     0     0   0.0   0.0
   43 0.0000 0.000000e+00 0.000000e+00   50000   0   0   0     0     0     0   0.0   0.0
   44 0.0254 0.000000e+00 0.000000e+00   50000   0   0   0     0     0     0   0.0   0.0
   45 0.0254 0.000000e+00 0.000000e+00   50000   0   0   0     0     0     0   0.0   0.0
   46 0.0254 0.000000e+00 0.000000e+00   50000   0   0   0     0     0     0   0.0   0.0
   47 0.1016 0.000000e+00 0.000000e+00   50000   0   0   0     0     0     0   0.0   0.0
   48 0.2032 0.000000e+00 0.000000e+00   50000   0   0   0     0     0     0   0.0   0.0
   49 0.0254 0.000000e+00 0.000000e+00   50000   0   0   0     0     0     0   0.0   0.0
   50 0.0000 0.000000e+00 0.000000e+00   50000   0   0   0     0     0     0   0.0   0.0
   51 0.0000 0.000000e+00 0.000000e+00   50000   0   0   0     0     0     0   0.0   0.0
   52 0.0254 0.000000e+00 0.000000e+00   50000   0   0   0     0     0     0   0.0   0.0
   53 0.0000 0.000000e+00 0.000000e+00   50000   0   0   0     0     0     0   0.0   0.0
   54 0.0000 0.000000e+00 0.000000e+00   50000   0   0   0     0     0     0   0.0   0.0
   55 0.0000 0.000000e+00 0.000000e+00   50000   0   0   0     0     0     0   0.0   0.0
   56 0.0000 0.000000e+00 0.000000e+00   50000   0   0   0     0     0     0   0.0   0.0
   57 0.0000 0.000000e+00 0.000000e+00   50000   0   0   0     0     0     0   0.0   0.0
   58 0.0000 1.745423e-03 3.193017e-04   50000   0   0   0     0     0     0   0.0   0.0
   59 0.0000 1.104209e-02 2.020002e-03   50000   0   0   0     0     0     0   0.0   0.0
   60 0.0000 1.850329e-02 3.384929e-03   50000   0   0   0     0     0     0   0.0   0.0
   61 0.0000 2.390498e-02 4.373095e-03   50000   0   0   0     0     0     0   0.0   0.0
   62 0.0000 2.770785e-02 5.068781e-03   50000   0   0   0     0     0     0   0.0   0.0
   63 0.0000 2.912261e-02 5.327592e-03   50000   0   0   0     0     0     0   0.0   0.0
   64 0.0000 2.664403e-02 4.874169e-03   50000   0   0   0     0     0     0   0.0   0.0
   65 0.0000 1.918521e-02 3.509678e-03   50000   0   0   0     0     0     0   0.0   0.0
   66 0.0000 0.000000e+00 0.000000e+00   50000   0   0   0     0     0     0   0.0   0.0
   67 0.0000 0.000000e+00 0.000000e+00   50000   0   0   0     0     0     0   0.0   0.0
   68 0.0000 0.000000e+00 0.000000e+00   50000   0   0   0     0     0     0   0.0   0.0
   69 0.0000 0.000000e+00 0.000000e+00   50000   0   0   0     0     0     0   0.0   0.0
   70 0.0000 0.000000e+00 0.000000e+00   50000   0   0   0     0     0     0   0.0   0.0
   71 0.0000 0.000000e+00 0.000000e+00   50000   0   0   0     0     0     0   0.0   0.0
   72 0.0000 0.000000e+00 0.000000e+00   50000   0   0   0     0     0     0   0.0   0.0
   73 0.0000 0.000000e+00 0.000000e+00   50000   0   0   0     0     0     0   0.0   0.0
   74 0.0000 0.000000e+00 0.000000e+00   50000   0   0   0     0     0     0   0.0   0.0
   75 0.0000 0.000000e+00 0.000000e+00   50000   0   0   0     0     0     0   0.0   0.0
   76 0.0000 0.000000e+00 0.000000e+00   50000   0   0   0     0     0     0   0.0   0.0
   77 0.0000 0.000000e+00 0.000000e+00   50000   0   0   0     0     0     0   0.0   0.0
   78 0.0000 0.000000e+00 0.000000e+00   50000   0   0   0     0     0     0   0.0   0.0
   79 0.0000 0.000000e+00 0.000000e+00   50000   0   0   0     0     0     0   0.0   0.0
   80 0.0000 0.000000e+00 0.000000e+00   50000   0   0   0     0     0     0   0.0   0.0
   81 0.0000 3.394652e-04 6.210061e-05   50000   0   0   0     0     0     0   0.0   0.0
   82 0.0000 2.793859e-03 5.110990e-04   50000   0   0   0     0     0     0   0.0   0.0
   83 0.0000 1.067622e-02 1.953072e-03   50000   0   0   0     0     0     0   0.0   0.0
   84 0.0000 1.538266e-02 2.814051e-03   50000   0   0   0     0     0     0   0.0   0.0
   85 0.0000 1.945451e-02 3.558942e-03   50000   0   0   0     0     0     0   0.0   0.0
   86 0.0000 2.154023e-02 3.940497e-03   50000   0   0   0     0     0     0   0.0   0.0
   87 0.0000 2.176906e-02 3.982358e-03   50000   0   0   0     0     0     0   0.0   0.0
   88 0.0000 1.975446e-02 3.613814e-03   50000   0   0   0     0     0     0   0.0   0.0
   89 0.0000 1.433294e-02 2.622019e-03   50000   0   0   0     0     0     0   0.0   0.0
   90 0.0000 0.000000e+00 0.000000e+00   50000   0   0   0     0     0     0   0.0   0.0
   91 0.0000 0.000000e+00 0.000000e+00   50000   0   0   0     0     0     0   0.0   0.0
   92 0.0000 0.000000e+00 0.000000e+00   50000   0   0   0     0     0     0   0.0   0.0
   93 0.0000 0.000000e+00 0.000000e+00   50000   0   0   0     0     0     0   0.0   0.0
   94 0.0000 0.000000e+00 0.000000e+00   50000   0   0   0     0     0     0   0.0   0.0
   95 0.0000 0.000000e+00 0.000000e+00   50000   0   0   0     0     0     0   0.0   0.0
   96 0.0000 0.000000e+00 0.000000e+00   50000   0   0   0     0     0     0   0.0   0.0
   97 0.0000 0.000000e+00 0.000000e+00   50000   0   0   0     0     0     0   0.0   0.0
   98 0.0000 0.000000e+00 0.000000e+00   50000   0   0   0     0     0     0   0.0   0.0
   99 0.0000 0.000000e+00 0.000000e+00   50000   0   0   0     0     0     0   0.0   0.0
  100 0.0000 0.000000e+00 0.000000e+00   50000   0   0   0     0     0     0   0.0   0.0
  101 0.0000 0.000000e+00 0.000000e+00   50000   0   0   0     0     0     0   0.0   0.0
  102 0.0000 0.000000e+00 0.000000e+00   50000   0   0   0     0     0     0   0.0   0.0
  103 0.0000 0.000000e+00 0.000000e+00   50000   0   0   0     0     0     0   0.0   0.0
  104 0.0000 0.000000e+00 0.000000e+00   50000   0   0   0     0     0     0   0.0   0.0
  105 0.0000 6.564116e-06 1.200817e-06   50000   0   0   0     0     0     0   0.0   0.0
  106 0.0000 3.904836e-03 7.143374e-04   50000   0   0   0     0     0     0   0.0   0.0
  107 0.0000 1.043226e-02 1.908442e-03   50000   0   0   0     0     0     0   0.0   0.0
  108 0.0000 1.722506e-02 3.151095e-03   50000   0   0   0     0     0     0   0.0   0.0
  109 0.0000 2.258961e-02 4.132466e-03   50000   0   0   0     0     0     0   0.0   0.0
  110 0.0000 2.523645e-02 4.616671e-03   50000   0   0   0     0     0     0   0.0   0.0
  111 0.0000 2.700784e-02 4.940722e-03   50000   0   0   0     0     0     0   0.0   0.0
  112 0.0000 2.499829e-02 4.573103e-03   50000   0   0   0     0     0     0   0.0   0.0
  113 0.0000 1.845145e-02 3.375446e-03   50000   0   0   0     0     0     0   0.0   0.0
  114 0.0000 0.000000e+00 0.000000e+00   50000   0   0   0     0     0     0   0.0   0.0
  115 0.0000 0.000000e+00 0.000000e+00   50000   0   0   0     0     0     0   0.0   0.0
  116 0.0000 0.000000e+00 0.000000e+00   50000   0   0   0     0     0     0   0.0   0.0
  117 0.0000 0.000000e+00 0.000000e+00   50000   0   0   0     0     0     0   0.0   0.0
  118 0.0000 0.000000e+00 0.000000e+00   50000   0   0   0     0     0     0   0.0   0.0
  119 0.0000 0.000000e+00 0.000000e+00   50000   0   0   0     0     0     0   0.0   0.0
  120 0.0000 0.000000e+00 0.000000e+00   50000   0   0   0     0     0     0   0.0   0.0
  121 0.0000 0.000000e+00 0.000000e+00   50000   0   0   0     0     0     0   0.0   0.0
  122 0.0000 0.000000e+00 0.000000e+00   50000   0   0   0     0     0     0   0.0   0.0
  123 0.0000 0.000000e+00 0.000000e+00   50000   0   0   0     0     0     0   0.0   0.0
  124 0.0000 0.000000e+00 0.000000e+00   50000   0   0   0     0     0     0   0.0   0.0
  125 0.0000 0.000000e+00 0.000000e+00   50000   0   0   0     0     0     0   0.0   0.0
  126 0.0000 0.000000e+00 0.000000e+00   50000   0   0   0     0     0     0   0.0   0.0
  127 0.0000 0.000000e+00 0.000000e+00   50000   0   0   0     0     0     0   0.0   0.0
  128 0.0000 0.000000e+00 0.000000e+00   50000   0   0   0     0     0     0   0.0   0.0
  129 0.0000 1.063238e-03 1.945051e-04   50000   0   0   0     0     0     0   0.0   0.0
  130 0.0000 6.515668e-03 1.191954e-03   50000   0   0   0     0     0     0   0.0   0.0
  131 0.0000 1.489854e-02 2.725488e-03   50000   0   0   0     0     0     0   0.0   0.0
  132 0.0000 2.236272e-02 4.090960e-03   50000   0   0   0     0     0     0   0.0   0.0
  133 0.0000 2.842681e-02 5.200305e-03   50000   0   0   0     0     0     0   0.0   0.0
  134 0.0000 3.009866e-02 5.506147e-03   50000   0   0   0     0     0     0   0.0   0.0
  135 0.0000 3.255849e-02 5.956139e-03   50000   0   0   0     0     0     0   0.0   0.0
  136 0.0000 2.852260e-02 5.217828e-03   50000   0   0   0     0     0     0   0.0   0.0
  137 0.0000 1.988333e-02 3.637389e-03   50000   0   0   0     0     0     0   0.0   0.0
  138 0.0000 0.000000e+00 0.000000e+00   50000   0   0   0     0     0     0   0.0   0.0
  139 0.0000 0.000000e+00 0.000000e+00   50000   0   0   0     0     0     0   0.0   0.0
  140 0.0000 0.000000e+00 0.000000e+00   50000   0   0   0     0     0     0   0.0   0.0
  141 0.0000 0.000000e+00 0.000000e+00   50000   0   0   0     0     0     0   0.0   0.0
  142 0.0000 0.000000e+00 0.000000e+00   50000   0   0   0     0     0     0   0.0   0.0
  143 0.0000 0.000000e+00 0.000000e+00   50000   0   0   0     0     0     0   0.0   0.0
  144 0.0000 0.000000e+00 0.000000e+00   50000   0   0   0     0     0     0   0.0   0.0
  145 0.0000 0.000000e+00 0.000000e+00   50000   0   0   0     0     0     0   0.0   0.0
  146 0.0000 0.000000e+00 0.000000e+00   50000   0   0   0     0     0     0   0.0   0.0
  147 0.0000 0.000000e+00 0.000000e+00   50000   0   0   0     0     0     0   0.0   0.0
  148 0.0000 0.000000e+00 0.000000e+00   50000   0   0   0     0     0     0   0.0   0.0
  149 0.0000 0.000000e+00 0.000000e+00   50000   0   0   0     0     0     0   0.0   0.0
  150 0.0000 0.000000e+00 0.000000e+00   50000   0   0   0     0     0     0   0.0   0.0
  151 0.0000 0.000000e+00 0.000000e+00   50000   0   0   0     0     0     0   0.0   0.0
  152 0.0000 0.000000e+00 0.000000e+00   50000   0   0   0     0     0     0   0.0   0.0
  153 0.0000 2.274374e-04 4.160663e-05   50000   0   0   0     0     0     0   0.0   0.0
  154 0.0000 4.553280e-03 8.329617e-04   50000   0   0   0     0     0     0   0.0   0.0
  155 0.0000 1.155977e-02 2.114706e-03   50000   0   0   0     0     0     0   0.0   0.0
  156 0.0000 1.717098e-02 3.141201e-03   50000   0   0   0     0     0     0   0.0   0.0
  157 0.0000 1.870016e-02 3.420945e-03   50000   0   0   0     0     0     0   0.0   0.0
  158 0.0000 2.070191e-02 3.787138e-03   50000   0   0   0     0     0     0   0.0   0.0
  159 0.0000 2.082339e-02 3.809360e-03   50000   0   0   0     0     0     0   0.0   0.0
  160 0.0000 1.862701e-02 3.407562e-03   50000   0   0   0     0     0     0   0.0   0.0
  161 0.0000 1.032944e-02 1.889632e-03   50000   0   0   0     0     0     0   0.0   0.0
  162 0.0000 0.000000e+00 0.000000e+00   50000   0   0   0     0     0     0   0.0   0.0
  163 0.0000 0.000000e+00 0.000000e+00   50000   0   0   0     0     0     0   0.0   0.0
  164 0.0000 0.000000e+00 0.000000e+00   50000   0   0   0     0     0     0   0.0   0.0
  165 0.0000 0.000000e+00 0.000000e+00   50000   0   0   0     0     0     0   0.0   0.0
  166 0.0000 0.000000e+00 0.000000e+00   50000   0   0   0     0     0     0   0.0   0.0
  167 0.0000 0.000000e+00 0.000000e+00   50000   0   0   0     0     0     0   0.0   0.0
  168 0.0000 0.000000e+00 0.000000e+00   50000   0   0   0     0     0     0   0.0   0.0
  169 0.0000 0.000000e+00 0.000000e+00   50000   0   0   0     0     0     0   0.0   0.0
  170 0.0000 0.000000e+00 0.000000e+00   50000   0   0   0     0     0     0   0.0   0.0
  171 0.0000 0.000000e+00 0.000000e+00   50000   0   0   0     0     0     0   0.0   0.0
  172 0.0000 0.000000e+00 0.000000e+00   50000   0   0   0     0     0     0   0.0   0.0
  173 0.0000 0.000000e+00 0.000000e+00   50000   0   0   0     0     0     0   0.0   0.0
  174 0.0000 0.000000e+00 0.000000e+00   50000   0   0   0     0     0     0   0.0   0.0
  175 0.0000 0.000000e+00 0.000000e+00   50000   0   0   0     0     0     0   0.0   0.0
  176 0.0000 0.000000e+00 0.000000e+00   50000   0   0   0     0     0     0   0.0   0.0
  177 0.0000 1.884545e-04 3.447524e-05   50000   0   0   0     0     0     0   0.0   0.0
  178 0.0000 1.467069e-03 2.683806e-04   50000   0   0   0     0     0     0   0.0   0.0
  179 0.0000 3.570485e-03 6.531725e-04   50000   0   0   0     0     0     0   0.0   0.0
  180 0.0000 4.531634e-03 8.290017e-04   50000   0   0   0     0     0     0   0.0   0.0
  181 0.0000 6.563627e-03 1.200728e-03   50000   0   0   0     0     0     0   0.0   0.0
  182 0.0000 1.135014e-02 2.076356e-03   50000   0   0   0     0     0     0   0.0   0.0
  183 0.0000 8.350262e-03 1.527569e-03   50000   0   0   0     0     0     0   0.0   0.0
  184 0.0000 5.821685e-03 1.064999e-03   50000   0   0   0     0     0     0   0.0   0.0
  185 0.0000 6.388107e-03 1.168619e-03   50000   0   0   0     0     0     0   0.0   0.0
  186 0.0000 0.000000e+00 0.000000e+00   50000   0   0   0     0     0     0   0.0   0.0
  187 0.0000 0.000000e+00 0.000000e+00   50000   0   0   0     0     0     0   0.0   0.0
  188 0.0000 0.000000e+00 0.000000e+00   50000   0   0   0     0     0     0   0.0   0.0
  189 0.0000 0.000000e+00 0.000000e+00   50000   0   0   0     0     0     0   0.0   0.0
  190 0.0000 0.000000e+00 0.000000e+00   50000   0   0   0     0     0     0   0.0   0.0
  191 0.0000 0.000000e+00 0.000000e+00   50000   0   0   0     0     0     0   0.0   0.0
  192 0.0000 0.000000e+00 0.000000e+00   50000   0   0   0     0     0     0   0.0   0.0
  193 0.0000 0.000000e+00 0.000000e+00   50000   0   0   0     0     0     0   0.0   0.0
  194 0.0000 0.000000e+00 0.000000e+00   50000   0   0   0     0     0     0   0.0   0.0
  195 0.0000 0.000000e+00 0.000000e+00   50000   0   0   0     0     0     0   0.0   0.0
  196 0.0000 0.000000e+00 0.000000e+00   50000   0   0   0     0     0     0   0.0   0.0
  197 0.0000 0.000000e+00 0.000000e+00   50000   0   0   0     0     0     0   0.0   0.0
  198 0.0000 0.000000e+00 0.000000e+00   50000   0   0   0     0     0     0   0.0   0.0
  199 0.0000 0.000000e+00 0.000000e+00   50000   0   0   0     0     0     0   0.0   0.0
  200 0.0000 3.238807e-04 5.924963e-05   50000   0   0   0     0     0     0   0.0   0.0
  201 0.0000 7.769339e-04 1.421297e-04   50000   0   0   0     0     0     0   0.0   0.0
  202 0.0000 1.662507e-03 3.041334e-04   50000   0   0   0     0     0     0   0.0   0.0
  203 0.0000 4.752866e-03 8.694731e-04   50000   0   0   0     0     0     0   0.0   0.0
  204 0.0000 5.604764e-03 1.025317e-03   50000   0   0   0     0     0     0   0.0   0.0
  205 0.0000 5.166471e-03 9.451366e-04   50000   0   0   0     0     0     0   0.0   0.0
  206 0.0000 3.548457e-03 6.491426e-04   50000   0   0   0     0     0     0   0.0   0.0
  207 0.0000 2.724272e-03 4.983691e-04   50000   0   0   0     0     0     0   0.0   0.0
  208 0.0000 3.575382e-03 6.540682e-04   50000   0   0   0     0     0     0   0.0   0.0
  209 0.0000 2.589779e-03 4.737654e-04   50000   0   0   0     0     0     0   0.0   0.0
  210 0.0000 0.000000e+00 0.000000e+00   50000   0   0   0     0     0     0   0.0   0.0
  211 0.0000 0.000000e+00 0.000000e+00   50000   0   0   0     0     0     0   0.0   0.0
  212 0.0000 0.000000e+00 0.000000e+00   50000   0   0   0     0     0     0   0.0   0.0
  213 0.0000 0.000000e+00 0.000000e+00   50000   0   0   0     0     0     0   0.0   0.0
  214 0.0000 0.000000e+00 0.000000e+00   50000   0   0   0     0     0     0   0.0   0.0
  215 0.0000 0.000000e+00 0.000000e+00   50000   0   0   0     0     0     0   0.0   0.0
  216 0.0000 0.000000e+00 0.000000e+00   50000   0   0   0     0     0     0   0.0   0.0
  217 0.0000 0.000000e+00 0.000000e+00   50000   0   0   0     0     0     0   0.0   0.0
  218 0.0000 0.000000e+00 0.000000e+00   50000   0   0   0     0     0     0   0.0   0.0
  219 0.0000 0.000000e+00 0.000000e+00   50000   0   0   0     0     0     0   0.0   0.0
  220 0.0000 0.000000e+00 0.000000e+00   50000   0   0   0     0     0     0   0.0   0.0
  221 0.0000 0.000000e+00 0.000000e+00   50000   0   0   0     0     0     0   0.0   0.0
  222 0.0000 0.000000e+00 0.000000e+00   50000   0   0   0     0     0     0   0.0   0.0
  223 0.0000 0.000000e+00 0.000000e+00   50000   0   0   0     0     0     0   0.0   0.0
  224 0.0000 0.000000e+00 0.000000e+00   50000   0   0   0     0     0     0   0.0   0.0
  225 0.0000 0.000000e+00 0.000000e+00   50000   0   0   0     0     0     0   0.0   0.0
  226 0.0000 4.236160e-04 7.749487e-05   50000   0   0   0     0     0     0   0.0   0.0
  227 0.0000 1.495012e-03 2.734925e-04   50000   0   0   0     0     0     0   0.0   0.0
  228 0.0000 2.646051e-03 4.840596e-04   50000   0   0   0     0     0     0   0.0   0.0
  229 0.0000 2.414338e-03 4.416708e-04   50000   0   0   0     0     0     0   0.0   0.0
  230 0.0000 3.814446e-03 6.978019e-04   50000   0   0   0     0     0     0   0.0   0.0
  231 0.0254 3.076141e-03 5.627389e-04   50000   0   0   0     0     0     0   0.0   0.0
  232 0.0762 2.173391e-03 3.975927e-04   50000   0   0   0     0     0     0   0.0   0.0
  233 0.0254 1.040925e-03 1.904233e-04   50000   0   0   0     0     0     0   0.0   0.0
  234 0.0000 0.000000e+00 0.000000e+00   50000   0   0   0     0     0     0   0.0   0.0
  235 0.0000 0.000000e+00 0.000000e+00   50000   0   0   0     0     0     0   0.0   0.0
  236 0.0000 0.000000e+00 0.000000e+00   50000   0   0   0     0     0     0   0.0   0.0
  237 0.0000 0.000000e+00 0.000000e+00   50000   0   0   0     0     0     0   0.0   0.0
  238 0.0000 0.000000e+00 0.000000e+00   50000   0   0   0     0     0     0   0.0   0.0
  239 0.0000 0.000000e+00 0.000000e+00   50000   0   0   0     0     0     0   0.0   0.0
  240 0.0254 0.000000e+00 0.000000e+00   50000   0   0   0     0     0     0   0.0   0.0
  241 0.0000 0.000000e+00 0.000000e+00   50000   0   0   0     0     0     0   0.0   0.0
  242 0.0000 0.000000e+00 0.000000e+00   50000   0   0   0     0     0     0   0.0   0.0
  243 0.0254 0.000000e+00 0.000000e+00   50000   0   0   0     0     0     0   0.0   0.0
  244 0.0762 0.000000e+00 0.000000e+00   50000   0   0   0     0     0     0   0.0   0.0
  245 0.0508 0.000000e+00 0.000000e+00   50000   0   0   0     0     0     0   0.0   0.0
  246 0.0254 0.000000e+00 0.000000e+00   50000   0   0   0     0     0     0   0.0   0.0
  247 0.3810 0.000000e+00 0.000000e+00   50000   0   0   0     0     0     0   0.0   0.0
  248 0.0762 0.000000e+00 0.000000e+00   50000   0   0   0     0     0     0   0.0   0.0
  249 0.0508 1.030887e-05 1.885870e-06   50000   0   0   0     0     0     0   0.0   0.0
  250 0.0762 2.323055e-03 4.249719e-04   50000   0   0   0     0     0     0   0.0   0.0
  251 0.0000 8.180917e-03 1.496589e-03   50000   0   0   0     0     0     0   0.0   0.0
  252 0.0000 1.662582e-02 3.041471e-03   50000   0   0   0     0     0     0   0.0   0.0
  253 0.0000 2.056083e-02 3.761328e-03   50000   0   0   0     0     0     0   0.0   0.0
  254 0.0000 1.260659e-02 2.306206e-03   50000   0   0   0     0     0     0   0.0   0.0
  255 0.0000 2.797798e-02 5.118197e-03   50000   0   0   0     0     0     0   0.0   0.0
  256 0.0000 2.416329e-02 4.420351e-03   50000   0   0   0     0     0     0   0.0   0.0
  257 0.0000 1.743534e-02 3.189562e-03   50000   0   0   0     0     0     0   0.0   0.0
  258 0.0000 0.000000e+00 0.000000e+00   50000   0   0   0     0     0     0   0.0   0.0
  259 0.0000 0.000000e+00 0.000000e+00   50000   0   0   0     0     0     0   0.0   0.0
  260 0.0000 0.000000e+00 0.000000e+00   50000   0   0   0     0     0     0   0.0   0.0
  261 0.0000 0.000000e+00 0.000000e+00   50000   0   0   0     0     0     0   0.0   0.0
  262 0.0000 0.000000e+00 0.000000e+00   50000   0   0   0     0     0     0   0.0   0.0
  263 0.0000 0.000000e+00 0.000000e+00   50000   0   0   0     0     0     0   0.0   0.0
  264 0.0000 0.000000e+00 0.000000e+00   50000   0   0   0     0     0     0   0.0   0.0
  265 0.0000 0.000000e+00 0.000000e+00   50000   0   0   0     0     0     0   0.0   0.0
  266 0.0000 0.000000e+00 0.000000e+00   50000   0   0   0     0     0     0   0.0   0.0
  267 0.0000 0.000000e+00 0.000000e+00   50000   0   0   0     0     0     0   0.0   0.0
  268 0.0000 0.000000e+00 0.000000e+00   50000   0   0   0     0     0     0   0.0   0.0
  269 0.0000 0.000000e+00 0.000000e+00   50000   0   0   0     0     0     0   0.0   0.0
  270 0.0000 0.000000e+00 0.000000e+00   50000   0   0   0     0     0     0   0.0   0.0
  271 0.0000 0.000000e+00 0.000000e+00   50000   0   0   0     0     0     0   0.0   0.0
  272 0.0000 0.000000e+00 0.000000e+00   50000   0   0   0     0     0     0   0.0   0.0
  273 0.0000 1.564964e-04 2.862892e-05   50000   0   0   0     0     0     0   0.0   0.0
  274 0.0000 4.400515e-03 8.050153e-04   50000   0   0   0     0     0     0   0.0   0.0
  275 0.0000 3.506200e-03 6.414123e-04   50000   0   0   0     0     0     0   0.0   0.0
  276 0.0000 3.035588e-03 5.553201e-04   50000   0   0   0     0     0     0   0.0   0.0
  277 0.0000 2.668412e-03 4.881502e-04   50000   0   0   0     0     0     0   0.0   0.0
  278 0.0000 2.446230e-03 4.475049e-04   50000   0   0   0     0     0     0   0.0   0.0
  279 0.0000 2.188599e-03 4.003748e-04   50000   0   0   0     0     0     0   0.0   0.0
  280 0.0000 2.038184e-03 3.728585e-04   50000   0   0   0     0     0     0   0.0   0.0
  281 0.0000 1.015768e-03 1.858212e-04   50000   0   0   0     0     0     0   0.0   0.0
  282 0.0000 0.000000e+00 0.000000e+00   50000   0   0   0     0     0     0   0.0   0.0
  283 0.0254 0.000000e+00 0.000000e+00   50000   0   0   0     0     0     0   0.0   0.0
  284 0.0000 0.000000e+00 0.000000e+00   50000   0   0   0     0     0     0   0.0   0.0
  285 0.0000 0.000000e+00 0.000000e+00   50000   0   0   0     0     0     0   0.0   0.0
  286 0.0000 0.000000e+00 0.000000e+00   50000   0   0   0     0     0     0   0.0   0.0
  287 0.0000 0.000000e+00 0.000000e+00   50000   0   0   0     0     0     0   0.0   0.0
  288 0.0000 0.000000e+00 0.000000e+00   50000   0   0   0     0     0     0   0.0   0.0
  289 0.0000 0.000000e+00 0.000000e+00   50000   0   0   0     0     0     0   0.0   0.0
  290 0.0000 0.000000e+00 0.000000e+00   50000   0   0   0     0     0     0   0.0   0.0
  291 0.0000 0.000000e+00 0.000000e+00   50000   0   0   0     0     0     0   0.0   0.0
  292 0.0000 0.000000e+00 0.000000e+00   50000   0   0   0     0     0     0   0.0   0.0
  293 0.0000 0.000000e+00 0.000000e+00   50000   0   0   0     0     0     0   0.0   0.0
  294 0.0000 0.000000e+00 0.000000e+00   50000   0   0   0     0     0     0   0.0   0.0
  295 0.0000 0.000000e+00 0.000000e+00   50000   0   0   0     0     0     0   0.0   0.0
  296 0.0000 0.000000e+00 0.000000e+00   50000   0   0   0     0     0     0   0.0   0.0
  297 0.0000 0.000000e+00 0.000000e+00   50000   0   0   0     0     0     0   0.0   0.0
  298 0.0000 4.309592e-04 7.883821e-05   50000   0   0   0     0     0     0   0.0   0.0
  299 0.0000 1.401701e-03 2.564225e-04   50000   0   0   0     0     0     0   0.0   0.0
  300 0.0000 2.724210e-03 4.983578e-04   50000   0   0   0     0     0     0   0.0   0.0
  301 0.0000 3.850091e-03 7.043227e-04   50000   0   0   0     0     0     0   0.0   0.0
  302 0.0000 4.011680e-03 7.338831e-04   50000   0   0   0     0     0     0   0.0   0.0
  303 0.0000 3.815016e-03 6.979061e-04   50000   0   0   0     0     0     0   0.0   0.0
  304 0.0000 4.228283e-03 7.735078e-04   50000   0   0   0     0     0     0   0.0   0.0
  305 0.0000 1.253056e-03 2.292298e-04   50000   0   0   0     0     0     0   0.0   0.0
  306 0.0000 0.000000e+00 0.000000e+00   50000   0   0   0     0     0     0   0.0   0.0
  307 0.0000 0.000000e+00 0.000000e+00   50000   0   0   0     0     0     0   0.0   0.0
  308 0.0000 0.000000e+00 0.000000e+00   50000   0   0   0     0     0     0   0.0   0.0
  309 0.0000 0.000000e+00 0.000000e+00   50000   0   0   0     0     0     0   0.0   0.0
  310 0.0000 0.000000e+00 0.000000e+00   50000   0   0   0     0     0     0   0.0   0.0
  311 0.0000 0.000000e+00 0.000000e+00   50000   0   0   0     0     0     0   0.0   0.0
  312 0.0000 0.000000e+00 0.000000e+00   50000   0   0   0     0     0     0   0.0   0.0
  313 0.0000 0.000000e+00 0.000000e+00   50000   0   0   0     0     0     0   0.0   0.0
  314 0.0000 0.000000e+00 0.000000e+00   50000   0   0   0     0     0     0   0.0   0.0
  315 0.0000 0.000000e+00 0.000000e+00   50000   0   0   0     0     0     0   0.0   0.0
  316 0.0000 0.000000e+00 0.000000e+00   50000   0   0   0     0     0     0   0.0   0.0
  317 0.0000 0.000000e+00 0.000000e+00   50000   0   0   0     0     0     0   0.0   0.0
  318 0.0000 0.000000e+00 0.000000e+00   50000   0   0   0     0     0     0   0.0   0.0
  319 0.0000 0.000000e+00 0.000000e+00   50000   0   0   0     0     0     0   0.0   0.0
  320 0.0000 0.000000e+00 0.000000e+00   50000   0   0   0     0     0     0   0.0   0.0
  321 0.0000 0.000000e+00 0.000000e+00   50000   0   0   0     0     0     0   0.0   0.0
  322 0.0000 2.648130e-04 4.844399e-05   50000   0   0   0     0     0     0   0.0   0.0
  323 0.0254 8.754360e-04 1.601493e-04   50000   0   0   0     0     0     0   0.0   0.0
  324 0.0000 2.341034e-03 4.282608e-04   50000   0   0   0     0     0     0   0.0   0.0
  325 0.0000 2.311484e-03 4.228551e-04   50000   0   0   0     0     0     0   0.0   0.0
  326 0.0000 2.753961e-03 5.038002e-04   50000   0   0   0     0     0     0   0.0   0.0
  327 0.0254 3.374204e-03 6.172655e-04   50000   0   0   0     0     0     0   0.0   0.0
  328 0.0000 2.433223e-03 4.451256e-04   50000   0   0   0     0     0     0   0.0   0.0
  329 0.0000 1.286824e-03 2.354072e-04   50000   0   0   0     0     0     0   0.0   0.0
  330 0.0254 0.000000e+00 0.000000e+00   50000   0   0   0     0     0     0   0.0   0.0
  331 0.0000 0.000000e+00 0.000000e+00   50000   0   0   0     0     0     0   0.0   0.0
  332 0.0000 0.000000e+00 0.000000e+00   50000   0   0   0     0     0     0   0.0   0.0
  333 0.0000 0.000000e+00 0.000000e+00   50000   0   0   0     0     0     0   0.0   0.0