Pcp_File_Version=4
*** BLOCK A: BASIC INFORMATION ***************************************************
Created with Pydrus version 0.2.0
Infiltration of Water into a Two-Layered Soil Profile
LUnit TUnit MUnit
cm
days
mmol
lWat  lChem  lTemp  lSink  lRoot  lShort  lWDep  lScreen  AtmInf  lEquil  lInverse  
t  f  f  f  f  f  f  f  t  t  f
lSnow  lHP1  lMeteo  lVapor  lActRSU  lFlux  lIrrig  
f  f  f  f  f  t  f
NMat NLay CosAlfa 
2 1 1
*** BLOCK B: WATER FLOW INFORMATION **********************************************
MaxIt  TolTh  TolH   (maximum number of iterations and tolerances)
10   0.0001   0.2
TopInf  WLayer  KodTop  lInitW  
t t -1 f 
BotInf  qGWLF  FreeD  SeepF  KodBot  qDrain  hSeep  
f f t f -1 f 0 
ha  hb  
1e-06 10000.0 
iModel  iHyst  
0 0 
  thr  ths  Alfa    n     Ks   l
0.095 0.41 0.019 1.31   6.24 0.5
0.065 0.41 0.075 1.89 106.10 0.5
*** BLOCK C: TIME INFORMATION ****************************************************
dt dtMin dtMax dMul dMul2 ItMin ItMax MPL 
0.001 1e-05 0.1 1.3 0.7 3 7 5 
tInit tMax 
0 20 
lPrint nPrintSteps tPrintInterval lEnter 
f 1 1 f 
TPrint(1),TPrint(2),...,TPrint(MPL)
2 5 7 10 20
*** BLOCK END OF INPUT FILE SELECTOR.IN ******************************************
